LAMMPS (1 Feb 2014)
# SRD diffusion demo - rigid star particles

units		lj
atom_style	sphere
atom_modify	map array first big
dimension	2

# read in clusters of rigid bodies

fix             molprop all property/atom mol
read_data	data.star fix molprop NULL Molecules
  orthogonal box = (-13.2934 -13.2934 -0.5) to (13.2934 13.2934 0.5)
  reading atoms ...
  270 atoms

set		type 1 mass 1.0
  270 settings made for mass
group		big type 1
270 atoms in group big
velocity	big create 1.44 87287 loop geom

# equilibrate big particles

pair_style	soft 1.12
pair_coeff	1 1 0.0
pair_coeff	2 2 0.0 0.0
pair_coeff	1 2 0.0 0.0

variable        prefactor equal ramp(0,60)
fix             soft all adapt 1 pair soft a * * v_prefactor

neighbor	0.3 bin
neigh_modify	delay 0 every 1 check yes

fix		1 big rigid molecule
30 rigid bodies with 270 atoms
fix		2 all enforce2d

#dump		1 all atom 10 dump.star.equil

thermo		100
run		1000
Step Temp E_pair E_mol TotEng Press
0            0            0            0            0   0.24721146
Averages over the last 6 of 11 rows, steps 500 to 1000:
Temp E_pair E_mol TotEng Press
0 15.4698 0 15.4698 0.977865
Loop time of 0.040709 on 8 procs for 1000 steps with 270 atoms

Pair  time (%) = 0.00249004 (6.11668)
Neigh time (%) = 0.000995547 (2.44552)
Comm  time (%) = 0.0116902 (28.7165)
Outpt time (%) = 0.000232756 (0.571755)
Other time (%) = 0.0253005 (62.1496)

#undump		1
unfix           soft
unfix		1
unfix		2

# add small particles as hi density lattice

region		plane block INF INF INF INF -0.001 0.001 units box
lattice		sq 85.0
Lattice spacing in x,y,z = 0.108465 0.108465 0.108465
create_atoms	2 region plane
Created 60025 atoms

set		type 2 mass 0.1
  60025 settings made for mass
group		small type 2
60025 atoms in group small
velocity	small create 1.0 593849 loop geom

# delete overlaps
# must set 1-2 cutoff to non-zero value

pair_style	lj/cut 2.5
pair_coeff	1 1 1.0 1.0
pair_coeff	2 2 0.0 1.0 0.0
pair_coeff	1 2 0.0 1.0 0.5

delete_atoms	overlap 0.5 small big
Deleted 16305 atoms, new total = 43990

# SRD run

reset_timestep	0

neighbor	0.3 bin
neigh_modify	delay 0 every 1 check yes

communicate	multi group big vel yes
neigh_modify	include big

# no pairwise interactions with small particles

pair_style	lj/cut 2.5
pair_coeff	1 1 1.0 1.0
pair_coeff	2 2 0.0 1.0 0.0
pair_coeff	1 2 0.0 1.0 0.0

# use fix SRD to push small particles out from inside big ones
# if comment out, big particles won't see SRD particles

timestep	0.001

fix		1 big rigid molecule
30 rigid bodies with 270 atoms
fix	        2 small srd 20 big 1.0 0.25 49894 shift yes 54979 		  search 0.2 collision slip inside ignore overlap yes
fix		3 all enforce2d

# diagnostics

compute		tbig big temp/sphere
variable	pebig equal pe*atoms/count(big)
variable	ebig equal etotal*atoms/count(big)
thermo_style	custom step temp f_2[8] etotal v_pebig v_ebig press 		f_2[1] f_2[2] f_2[3] f_2[4] f_2[5] 		f_2[6] f_2[7] f_2[8] f_2[9] f_2[10] f_2[11] f_2[12]

thermo_modify	temp tbig
thermo		1000

#dump		1 all atom 1000 dump.star

#dump		1 all image 1000 image.*.jpg type type zoom 1.6
#dump_modify	1 pad 6 adiam 1 1 adiam 2 0.2

run		100000
SRD info:
  SRD/big particles = 43720 270
  big particle diameter max/min = 1 1
  SRD temperature & lamda = 1 0.0632456
  SRD max distance & max velocity = 0.252982 12.6491
  SRD grid counts: 106 106 1
  SRD grid size: request, actual (xyz) = 0.25, 0.250819 0.250819 1
  SRD per actual grid cell = 5.55866
  SRD viscosity = 0.235582
  big/SRD mass density ratio = 0.144099
  # of rescaled SRD velocities = 0
  ave/max small velocity = 4.19085 7.72582
  ave/max big velocity = 2.20262 5.4168
Step Temp 2[8] TotEng pebig ebig Press 2[1] 2[2] 2[3] 2[4] 2[5] 2[6] 2[7] 2[8] 2[9] 2[10] 2[11] 2[12]
0    18.299191            0   0.25067776    37.859815    40.841906    5.7680841            0            0            0            0            0            0            0            0            0            0            0            0
Averages over the last 51 of 101 rows, steps 50000 to 100000:
Temp 2[8] TotEng pebig ebig Press 2[1] 2[2] 2[3] 2[4] 2[5] 2[6] 2[7] 2[8] 2[9] 2[10] 2[11] 2[12]
1.05468 8190.2 0.228382 37.0374 37.2093 6.88744 13789.7 55.6078 55.8039 0.0784314 53263.5 57680 11236 8190.2 1.00561 0 80.098 0
Loop time of 33.9872 on 8 procs for 100000 steps with 43990 atoms

Pair  time (%) = 0.379981 (1.11801)
Neigh time (%) = 2.01801 (5.93757)
Comm  time (%) = 2.30255 (6.77476)
Outpt time (%) = 0.00694308 (0.0204285)
Other time (%) = 29.2797 (86.1492)

Please see the log.cite file for references relevant to this simulation
