LAMMPS (27 Nov 2018)
# Liquid water RDFs and ADFs (~12 O-O-O/atom, ~1 O-H...O/atom)

units		real
atom_style	full

read_data	data.spce
  orthogonal box = (0.02645 0.02645 0.02641) to (35.5328 35.5328 35.4736)
  reading atoms ...
  4500 atoms
  scanning bonds ...
  scanning angles ...
  reading bonds ...
  3000 bonds
  reading angles ...
  1500 angles

pair_style      lj/cut/coul/long 12.0 12.0
pair_coeff      * * 0.0     1.0
pair_coeff      1 1 0.15535 3.166
kspace_style	pppm 1.0e-6

bond_style	harmonic
angle_style	harmonic
dihedral_style	none
improper_style	none

bond_coeff	1 1000.00 1.000
angle_coeff	1 100.0 109.47

# need to set bond/angle inclusion to > 0.0
# so that intramolecular pairs are included in neighbor lists (required for second ADF)
special_bonds   lj/coul 1.0e-100 1.0e-100 1.0

neighbor        2.0 bin
timestep        2.0
neigh_modify    every 1 delay 2 check yes

fix		1 all shake 0.0001 20 0 b 1 a 1
fix		2 all nvt temp 300.0 300.0 100.0

velocity all create 300.0 6244325

thermo 100
run 500
PPPM initialization ...
  G vector (1/distance) = 0.279652
  grid = 40 40 40
  stencil order = 5
  estimated absolute RMS force accuracy = 0.000394674
  estimated relative force accuracy = 1.18855e-06
  3d grid and FFT values/proc = 103823 64000
  update every 1 steps, delay 2 steps, check yes
Step Temp E_pair E_mol TotEng Press
0          300   -16692.369            0   -14010.534   -112.83562
Loop time of 38.2796 on 1 procs for 500 steps with 4500 atoms

reset_timestep 0

compute gofr all rdf 100  1 1  2 2  1 2  # O-O, H-H, O-H
compute gofa all adf  45  1 1 1  2.0 3.5  2.0 3.5                           2 1 1  0.0 1.2  1.5 2.5   # O-O-O, O-H...O
fix rdf all ave/time 100 10 1000 c_gofr[*] file spce-rdf.dat mode vector
fix adf all ave/time 10 100 1000 c_gofa[*] file spce-adf.dat mode vector

run 1000
PPPM initialization ...
  G vector (1/distance) = 0.279652
  grid = 40 40 40
  stencil order = 5
  estimated absolute RMS force accuracy = 0.000394674
  estimated relative force accuracy = 1.18855e-06
  3d grid and FFT values/proc = 103823 64000
  update every 1 steps, delay 2 steps, check yes
Step Temp E_pair E_mol TotEng Press
0    298.00057   -16716.887            0   -14052.926     231.6595
Averages over the last 6 of 11 rows, steps 500 to 1000:
Temp E_pair E_mol TotEng Press
299.362 -16618.8 0 -13942.7 321.034
Loop time of 107.579 on 1 procs for 1000 steps with 4500 atoms
