LAMMPS (9 Nov 2016)
# LJ particles
variable        T0 equal 300.0
variable        press equal 0.0

units           real
atom_style      full
pair_style      lj/cut 5.0

read_data       "lj.data"
  orthogonal box = (1.06874 1.06874 1.06874) to (23.9313 23.9313 23.9313)
  reading atoms ...
  500 atoms
  reading velocities ...
  500 velocities

thermo          10
thermo_style    custom step temp pe etotal press vol

timestep        1.0

fix             fxnvt all npt temp 300 300 1000.0 iso 0 0 10000.0
fix             fxgREM all grem 400 -.01 -30000 fxnvt
thermo_modify   press fxgREM_press
run             1000
  1 neighbor list requests
  update every 1 steps, delay 10 steps, check yes
Step Temp PotEng TotEng Press Volume
0    305.69499   -3177.6423   -2722.9442   -91.741776    11950.115
Averages over the last 51 of 101 rows, steps 500 to 1000:
Temp PotEng TotEng Press Volume
299.984 -3174.2 -2728 76.9478 11951.8
Loop time of 0.154208 on 4 procs for 1000 steps with 500 atoms

#write_data      lj-out.data
