LAMMPS (27 Nov 2018)
# Testsystem for core-shell model compared to Mitchell and Fincham
# Hendrik Heenen, June 2014

# ------------------------ INITIALIZATION ----------------------------

units 		metal
dimension	3
boundary	p	p	p
atom_style	full

# ----------------------- ATOM DEFINITION ----------------------------

fix csinfo all property/atom i_CSID
read_data data.coreshell fix csinfo NULL CS-Info
  orthogonal box = (0 0 0) to (24.096 24.096 24.096)
  reading atoms ...
  432 atoms
  scanning bonds ...
  reading bonds ...
  216 bonds

group cores type 1 2
216 atoms in group cores
group shells type 3 4
216 atoms in group shells

neighbor 2.0 bin
comm_modify vel yes

# ------------------------ FORCE FIELDS ------------------------------

kspace_style ewald 1.0e-6
pair_style   born/coul/long/cs 20.0 20.0    # A, rho, sigma=0, C, D
pair_coeff   * *      0.0 1.000   0.00  0.00   0.00
pair_coeff   3 3    487.0 0.23768 0.00  1.05   0.50 #Na-Na
pair_coeff   3 4 145134.0 0.23768 0.00  6.99   8.70 #Na-Cl
pair_coeff   4 4 405774.0 0.23768 0.00 72.40 145.40 #Cl-Cl

bond_style harmonic
bond_coeff 1 63.014 0.0
bond_coeff 2 25.724 0.0

# ------------------------ Equilibration Run -------------------------------

reset_timestep 0

thermo 50
thermo_style custom step etotal pe ke temp press              epair evdwl ecoul elong ebond fnorm fmax vol

compute CStemp all temp/cs cores shells
compute thermo_press_lmp all pressure thermo_temp # press for correct kinetic scalar

# output via chunk method

#compute prop all property/atom i_CSID
#compute cs_chunk all chunk/atom c_prop
#compute cstherm all temp/chunk cs_chunk temp internal com yes cdof 3.0
#fix ave_chunk all ave/time 100 1 100 c_cstherm file chunk.dump mode vector

thermo_modify temp CStemp press thermo_press_lmp

# 2 fmsec timestep

timestep 0.002

# velocity bias option

velocity all create 1427 134 dist gaussian mom yes rot no bias yes temp CStemp
Ewald initialization ...
  G vector (1/distance) = 0.175257
  estimated absolute RMS force accuracy = 1.49563e-05
  estimated relative force accuracy = 1.03866e-06
  KSpace vectors: actual max1d max3d = 257 5 665
                  kxmax kymax kzmax  = 5 5 5
  update every 1 steps, delay 10 steps, check yes
velocity all scale 1427 temp CStemp

# thermostating using the core/shell decoupling

fix thermoberendsen all temp/berendsen 1427 1427 0.4
fix nve all nve
fix_modify thermoberendsen temp CStemp

run 500
Ewald initialization ...
  G vector (1/distance) = 0.175257
  estimated absolute RMS force accuracy = 1.49563e-05
  estimated relative force accuracy = 1.03866e-06
  KSpace vectors: actual max1d max3d = 257 5 665
                  kxmax kymax kzmax  = 5 5 5
Step TotEng PotEng KinEng Temp Press E_pair E_vdwl E_coul E_long E_bond Fnorm Fmax Volume
0   -635.44099   -675.09865    39.657659         1427   -20613.612   -675.09865    1.6320365    1018.8211   -1695.5518            0 2.9851021e-14 4.2188475e-15      13990.5
Loop time of 1.9161 on 4 procs for 500 steps with 432 atoms

unfix thermoberendsen
unfix nve

fix npt_equ all npt temp 1427 1427 0.04 iso 0 0 0.4
fix_modify npt_equ temp CStemp press thermo_press_lmp # pressure for correct kinetic scalar

run 500
Ewald initialization ...
  G vector (1/distance) = 0.175257
  estimated absolute RMS force accuracy = 1.49563e-05
  estimated relative force accuracy = 1.03866e-06
  KSpace vectors: actual max1d max3d = 257 5 665
                  kxmax kymax kzmax  = 5 5 5
Step TotEng PotEng KinEng Temp Press E_pair E_vdwl E_coul E_long E_bond Fnorm Fmax Volume
500   -624.30215   -661.97992    37.677763    1355.7575   -998.38049   -664.60501    42.373269    987.58935   -1694.5676    2.6250971    11.151918    2.8270144      13990.5
Loop time of 1.93169 on 4 procs for 500 steps with 432 atoms

unfix npt_equ

# ------------------------ Dynamic Run -------------------------------

fix npt_dyn all npt temp 1427 1427 0.04 iso 0 0 0.4
fix_modify npt_dyn temp CStemp press thermo_press_lmp # pressure for correct kinetic scalar
run 1000
Ewald initialization ...
  G vector (1/distance) = 0.17523
  estimated absolute RMS force accuracy = 1.49925e-05
  estimated relative force accuracy = 1.04117e-06
  KSpace vectors: actual max1d max3d = 257 5 665
                  kxmax kymax kzmax  = 5 5 5
Step TotEng PotEng KinEng Temp Press E_pair E_vdwl E_coul E_long E_bond Fnorm Fmax Volume
1000   -614.74144   -660.36077    45.619322    1641.5183    897.55556   -663.18359    45.139971    986.31352   -1694.6371    2.8228194    11.867665    2.4545613    14093.503
Averages over the last 11 of 21 rows, steps 1500 to 2000:
TotEng PotEng KinEng Temp Press E_pair E_vdwl E_coul E_long E_bond Fnorm Fmax Volume
-616.283 -656.036 39.7524 1430.41 -0.604014 -658.741 44.0611 991.447 -1694.25 2.7052 11.4801 2.01407 14519
Loop time of 4.08624 on 4 procs for 1000 steps with 432 atoms
