LAMMPS (27 Nov 2018)
# Testsystem for core-shell model compared to Mitchel and Finchham
# Hendrik Heenen, June 2014

# ------------------------ INITIALIZATION ----------------------------

units 		metal
dimension	3
boundary	p	p	p
atom_style	full

# ----------------------- ATOM DEFINITION ----------------------------

fix csinfo all property/atom i_CSID
read_data data.coreshell fix csinfo NULL CS-Info
  orthogonal box = (0 0 0) to (24.096 24.096 24.096)
  reading atoms ...
  432 atoms
  scanning bonds ...
  reading bonds ...
  216 bonds

group cores type 1 2
216 atoms in group cores
group shells type 3 4
216 atoms in group shells

neighbor 2.0 bin
comm_modify vel yes

# ------------------------ FORCE FIELDS ------------------------------

kspace_style ewald 1.0e-6
pair_style   born/coul/long/cs 20.0 20.0    # A, rho, sigma=0, C, D
pair_coeff   * *      0.0 1.000   0.00  0.00   0.00
pair_coeff   3 3    487.0 0.23768 0.00  1.05   0.50 #Na-Na
pair_coeff   3 4 145134.0 0.23768 0.00  6.99   8.70 #Na-Cl
pair_coeff   4 4 405774.0 0.23768 0.00 72.40 145.40 #Cl-Cl

bond_style harmonic
bond_coeff 1 63.014 0.0
bond_coeff 2 25.724 0.0

# ------------------------ Equilibration Run -------------------------------

reset_timestep 0

thermo 50
thermo_style custom step etotal pe ke temp press              epair evdwl ecoul elong ebond fnorm fmax vol

compute CStemp all temp/cs cores shells
compute thermo_press_lmp all pressure thermo_temp # press for correct kinetic scalar

# output via chunk method

#compute prop all property/atom i_CSID
#compute cs_chunk all chunk/atom c_prop
#compute cstherm all temp/chunk cs_chunk temp internal com yes cdof 3.0
#fix ave_chunk all ave/time 100 1 100 c_cstherm file chunk.dump mode vector

thermo_modify temp CStemp press thermo_press_lmp

# velocity bias option

velocity all create 1427 134 dist gaussian mom yes rot no bias yes temp CStemp
Ewald initialization ...
  G vector (1/distance) = 0.175257
  estimated absolute RMS force accuracy = 1.49563e-05
  estimated relative force accuracy = 1.03866e-06
  KSpace vectors: actual max1d max3d = 257 5 665
                  kxmax kymax kzmax  = 5 5 5
  update every 1 steps, delay 10 steps, check yes
velocity all scale 1427 temp CStemp

# thermostating using the core/shell decoupling

fix thermoberendsen all temp/berendsen 1427 1427 0.4
fix nve all nve
fix_modify thermoberendsen temp CStemp

# 2 fmsec timestep

timestep 0.002
run 500
Ewald initialization ...
  G vector (1/distance) = 0.175257
  estimated absolute RMS force accuracy = 1.49563e-05
  estimated relative force accuracy = 1.03866e-06
  KSpace vectors: actual max1d max3d = 257 5 665
                  kxmax kymax kzmax  = 5 5 5
Step TotEng PotEng KinEng Temp Press E_pair E_vdwl E_coul E_long E_bond Fnorm Fmax Volume
0   -635.44099   -675.09865    39.657659         1427   -20613.612   -675.09865    1.6320365    1018.8211   -1695.5518            0 2.7895988e-14 3.594347e-15      13990.5
Loop time of 6.53907 on 1 procs for 500 steps with 432 atoms

unfix thermoberendsen

# ------------------------ Dynamic Run -------------------------------

run 1000
Ewald initialization ...
  G vector (1/distance) = 0.175257
  estimated absolute RMS force accuracy = 1.49563e-05
  estimated relative force accuracy = 1.03866e-06
  KSpace vectors: actual max1d max3d = 257 5 665
                  kxmax kymax kzmax  = 5 5 5
Step TotEng PotEng KinEng Temp Press E_pair E_vdwl E_coul E_long E_bond Fnorm Fmax Volume
500   -624.30215   -661.97859    37.676437    1355.7098   -998.57286   -664.60382    42.373117    987.59021   -1694.5671     2.625227    11.153883    2.8270306      13990.5
Averages over the last 11 of 21 rows, steps 1000 to 1500:
TotEng PotEng KinEng Temp Press E_pair E_vdwl E_coul E_long E_bond Fnorm Fmax Volume
-624.306 -660.639 36.3337 1307.39 519.133 -663.329 45.9725 985.371 -1694.67 2.68931 11.4707 2.05406 13990.5
Loop time of 13.2154 on 1 procs for 1000 steps with 432 atoms
