LAMMPS (22 Sep 2017)
units		lj
dimension	3
boundary	p p p
atom_style  atomic

# truncated and shifted LJ potential
pair_style	lj/cut 2.5
pair_modify	shift yes
lattice	fcc 0.9731
Lattice spacing in x,y,z = 1.6019 1.6019 1.6019
region	my_box block 0 8.0   0 8.0   0 20.0
create_box 1 my_box
Created orthogonal box = (0 0 0) to (12.8152 12.8152 32.0379)
region particles block 0 8.0 0 8.0 0 20.0
create_atoms 1 region particles
Created 5120 atoms
pair_coeff 1 1 1.0 1.0 2.5
pair_modify tail no
pair_modify shift yes
mass 1 1.0
velocity all create 1.6 1 mom yes rot yes

# simulation parameters
neighbor	0.6 bin
timestep	0.004
run_style 	verlet
fix ensemble all npt temp 0.8 0.8 4.0 aniso 2.185 2.185 8.0 pchain 32

# computing long-range order (no bias is added since k=0)
fix bias all rhok 16 0 0 0.0 0.0

# output
thermo 50
thermo_style custom step temp press density f_bias[3]
# dump dumpXYZ all xyz 2000 traj.xyz

# NOTE: this is cut short to 5000 steps for demonstration purposes
# run 100000
run 5000
  update every 1 steps, delay 10 steps, check yes
Step Temp Press Density f_bias[3]
0          1.6   -2.7568106       0.9731    71.554175
Averages over the last 51 of 101 rows, steps 2500 to 5000:
Temp Press Density f_bias[3]
0.802165 2.18923 0.972965 56.5017
Loop time of 33.6467 on 1 procs for 5000 steps with 5120 atoms

Please see the log.cite file for references relevant to this simulation
