LAMMPS (27 Nov 2018)
# 2d Lennard-Jones melt and subsequent energy minimization,
# followed by box relaxation to a target stress state
#
units		lj
dimension	2
atom_style	atomic

lattice		sq2 0.8442
Lattice spacing in x,y,z = 1.53919 1.53919 1.53919
region		box block 0 20 0 20 -0.1 0.1
create_box	1 box
Created orthogonal box = (0 0 -0.153919) to (30.7838 30.7838 0.153919)
create_atoms	1 box
Created 800 atoms
  Time spent = 0.000453234 secs
mass		1 1.0

velocity	all create 5.0 87287 loop geom

pair_style	lj/cut 2.5
pair_coeff	1 1 1.0 1.0 2.5
pair_modify	shift yes

neighbor	0.3 bin
neigh_modify	delay 0 every 1 check yes

fix		1 all nve
fix		2 all enforce2d

#dump		1 all atom 500 dump.min

#dump		2 all image 500 image.*.jpg type type #		zoom 1.6 adiam 1.5
#dump_modify	2 pad 4

#dump		3 all movie 500 movie.mpg type type #		zoom 1.6 adiam 1.5
#dump_modify	3 pad 4

thermo		100

run		1000
  update every 1 steps, delay 0 steps, check yes
Step Temp E_pair E_mol TotEng Press
0            5    -2.461717            0     2.532033    5.0190509
Averages over the last 6 of 11 rows, steps 500 to 1000:
Temp E_pair E_mol TotEng Press
3.33435 -0.798711 0 2.53147 15.5519
Loop time of 0.210142 on 1 procs for 1000 steps with 800 atoms

# perform the box relaxation by progressively
# adding more degrees of freedom, for smoother
# convergence

neigh_modify	delay 0 every 1 check yes

velocity	all create 0.0 1
thermo		50

# atoms only

minimize	1.0e-6 0.001 1000 10000
Step Temp E_pair E_mol TotEng Press
1000            0  -0.79078181            0  -0.79078181     12.79527
Loop time of 0.234897 on 1 procs for 475 steps with 800 atoms

Minimization stats:
  Stopping criterion = energy tolerance
  Energy initial, next-to-last, final =
  Force two-norm initial, final = 1905.47 0.794548
  Force max component initial, final = 343.392 0.268404
  Final line search alpha, max atom move = 0.347566 0.0932881
  Iterations, force evaluations = 475 940

# isotropic volume relaxation to hydrostatic target

fix             3 all box/relax iso 1.5 vmax 1.0e-3

variable        emin equal pe+f_3/atoms
thermo_style    custom step temp pe pxx pyy pxy f_3 v_emin

# anisotropic volume relaxation to hydrostatic target

minimize	0.0 10.0e0 10000 100000
Step Temp PotEng Pxx Pyy Pxy f_3 v_emin
1475            0   -2.9169436   -1.0208231   -1.0043256  0.042048233            0   -2.9169436
Loop time of 0.112146 on 1 procs for 224 steps with 800 atoms

Minimization stats:
  Stopping criterion = force tolerance
  Energy initial, next-to-last, final =
  Force two-norm initial, final = 4762.05 8.66905
  Force max component initial, final = 4762.05 3.21614
  Final line search alpha, max atom move = 6.88085e-05 0.000221298
  Iterations, force evaluations = 224 409

fix             3 all box/relax aniso 1.5 vmax 1.0e-3

minimize	0.0 10.0 10000 100000
Step Temp PotEng Pxx Pyy Pxy f_3 v_emin
1699            0   -2.9334511    1.4447667    1.5587557  0.044510608            0   -2.9334511
Loop time of 0.000793934 on 1 procs for 1 steps with 800 atoms

Minimization stats:
  Stopping criterion = force tolerance
  Energy initial, next-to-last, final =
  Force two-norm initial, final = 71.3983 8.74381
  Force max component initial, final = 51.6897 2.68015
  Final line search alpha, max atom move = 1.93462e-05 5.18508e-05
  Iterations, force evaluations = 1 2

# anisotropic volume relaxation to non-hydrostatic target

fix             3 all box/relax x 1.0 y 2.0 vmax 1.0e-3

minimize	0.0 10.0 10000 100000
Step Temp PotEng Pxx Pyy Pxy f_3 v_emin
1700            0   -2.9335996    1.4982915    1.4969508  0.044657372 -3.5527137e-17   -2.9335996
Loop time of 0.0997889 on 1 procs for 213 steps with 800 atoms

Minimization stats:
  Stopping criterion = force tolerance
  Energy initial, next-to-last, final =
  Force two-norm initial, final = 622.999 9.93502
  Force max component initial, final = 442.577 5.00802
  Final line search alpha, max atom move = 0.000369148 0.0018487
  Iterations, force evaluations = 213 356

minimize	0.0 1.0 10000 100000
Step Temp PotEng Pxx Pyy Pxy f_3 v_emin
1913            0   -2.9391305   0.98238419    1.9782761  0.074400364 7.1054274e-17   -2.9391305
Averages over the last 45 of 90 rows, steps 4150 to 6314:
Temp PotEng Pxx Pyy Pxy f_3 v_emin
0 -3.01816 0.993289 1.99118 0.0952434 -0.0334043 -3.05157
Loop time of 2.33993 on 1 procs for 4401 steps with 800 atoms

Minimization stats:
  Stopping criterion = force tolerance
  Energy initial, next-to-last, final =
  Force two-norm initial, final = 25.9452 0.920316
  Force max component initial, final = 19.0294 0.548784
  Final line search alpha, max atom move = 0.000841982 0.000462066
  Iterations, force evaluations = 4401 8540

minimize	0.0 1.0e-2 10000 100000
Step Temp PotEng Pxx Pyy Pxy f_3 v_emin
6314            0   -3.0377854   0.99649081    1.9975871  0.032243768 3.5527137e-17   -3.0377854
Averages over the last 17 of 34 rows, steps 7150 to 7904:
Temp PotEng Pxx Pyy Pxy f_3 v_emin
0 -3.03784 1.00007 1.99999 0.0336854 -7.31983e-05 -3.03791
Loop time of 0.85351 on 1 procs for 1590 steps with 800 atoms

Minimization stats:
  Stopping criterion = force tolerance
  Energy initial, next-to-last, final =
  Force two-norm initial, final = 3.7074 0.00953997
  Force max component initial, final = 3.0105 0.0052229
  Final line search alpha, max atom move = 0.0789456 0.000412325
  Iterations, force evaluations = 1590 3180

# Final refinement uses nreset to eliminate stress offset

fix             3 all box/relax x 1.0 y 2.0 vmax 1.0e-3 nreset 100

minimize	0.0 1.0e-4 10000 100000
Step Temp PotEng Pxx Pyy Pxy f_3 v_emin
7904            0   -3.0378356    1.0000321    2.0000425  0.033740786            0   -3.0378356
Loop time of 0.457836 on 1 procs for 849 steps with 800 atoms

Minimization stats:
  Stopping criterion = force tolerance
  Energy initial, next-to-last, final =
  Force two-norm initial, final = 0.0462457 9.79399e-05
  Force max component initial, final = 0.0364742 4.124e-05
  Final line search alpha, max atom move = 1 4.124e-05
  Iterations, force evaluations = 849 1698
