LAMMPS (27 Nov 2018)
# 2d Lennard-Jones melt and subsequent energy minimization,
# followed by box relaxation to a target stress state
#
units		lj
dimension	2
atom_style	atomic

lattice		sq2 0.8442
Lattice spacing in x,y,z = 1.53919 1.53919 1.53919
region		box block 0 20 0 20 -0.1 0.1
create_box	1 box
Created orthogonal box = (0 0 -0.153919) to (30.7838 30.7838 0.153919)
create_atoms	1 box
Created 800 atoms
  Time spent = 0.000339985 secs
mass		1 1.0

velocity	all create 5.0 87287 loop geom

pair_style	lj/cut 2.5
pair_coeff	1 1 1.0 1.0 2.5
pair_modify	shift yes

neighbor	0.3 bin
neigh_modify	delay 0 every 1 check yes

fix		1 all nve
fix		2 all enforce2d

#dump		1 all atom 500 dump.min

#dump		2 all image 500 image.*.jpg type type #		zoom 1.6 adiam 1.5
#dump_modify	2 pad 4

#dump		3 all movie 500 movie.mpg type type #		zoom 1.6 adiam 1.5
#dump_modify	3 pad 4

thermo		100

run		1000
  update every 1 steps, delay 0 steps, check yes
Step Temp E_pair E_mol TotEng Press
0            5    -2.461717            0     2.532033    5.0190509
Averages over the last 6 of 11 rows, steps 500 to 1000:
Temp E_pair E_mol TotEng Press
3.33075 -0.795081 0 2.53151 15.5713
Loop time of 0.0739716 on 4 procs for 1000 steps with 800 atoms

# perform the box relaxation by progressively
# adding more degrees of freedom, for smoother
# convergence

neigh_modify	delay 0 every 1 check yes

velocity	all create 0.0 1
thermo		50

# atoms only

minimize	1.0e-6 0.001 1000 10000
Step Temp E_pair E_mol TotEng Press
1000            0  -0.77076863            0  -0.77076863    12.920868
Loop time of 0.0533715 on 4 procs for 300 steps with 800 atoms

Minimization stats:
  Stopping criterion = energy tolerance
  Energy initial, next-to-last, final =
  Force two-norm initial, final = 1950.95 0.825241
  Force max component initial, final = 374.098 0.224821
  Final line search alpha, max atom move = 0.410301 0.0922441
  Iterations, force evaluations = 300 595

# isotropic volume relaxation to hydrostatic target

fix             3 all box/relax iso 1.5 vmax 1.0e-3

variable        emin equal pe+f_3/atoms
thermo_style    custom step temp pe pxx pyy pxy f_3 v_emin

# anisotropic volume relaxation to hydrostatic target

minimize	0.0 10.0e0 10000 100000
Step Temp PotEng Pxx Pyy Pxy f_3 v_emin
1300            0   -2.8887969  -0.93904343   -1.1506328 -0.0037265764            0   -2.8887969
Loop time of 0.0172202 on 4 procs for 103 steps with 800 atoms

Minimization stats:
  Stopping criterion = force tolerance
  Energy initial, next-to-last, final =
  Force two-norm initial, final = 4823.19 9.6427
  Force max component initial, final = 4823.19 3.04698
  Final line search alpha, max atom move = 2.87851e-05 8.77075e-05
  Iterations, force evaluations = 103 161

fix             3 all box/relax aniso 1.5 vmax 1.0e-3

minimize	0.0 10.0 10000 100000
Step Temp PotEng Pxx Pyy Pxy f_3 v_emin
1403            0   -2.8962558    1.5290172    1.4743135   0.00471395            0   -2.8962558
Loop time of 0.000330448 on 4 procs for 1 steps with 800 atoms

Minimization stats:
  Stopping criterion = force tolerance
  Energy initial, next-to-last, final =
  Force two-norm initial, final = 35.4271 9.77898
  Force max component initial, final = 25.6271 3.39863
  Final line search alpha, max atom move = 3.90213e-05 0.000132619
  Iterations, force evaluations = 1 2

# anisotropic volume relaxation to non-hydrostatic target

fix             3 all box/relax x 1.0 y 2.0 vmax 1.0e-3

minimize	0.0 10.0 10000 100000
Step Temp PotEng Pxx Pyy Pxy f_3 v_emin
1404            0   -2.8963678      1.49615     1.499767 0.0037848845 -7.1054274e-17   -2.8963678
Loop time of 0.0321782 on 4 procs for 188 steps with 800 atoms

Minimization stats:
  Stopping criterion = force tolerance
  Energy initial, next-to-last, final =
  Force two-norm initial, final = 622.345 9.97488
  Force max component initial, final = 441.816 3.5534
  Final line search alpha, max atom move = 4.49831e-05 0.000159843
  Iterations, force evaluations = 188 295

minimize	0.0 1.0 10000 100000
Step Temp PotEng Pxx Pyy Pxy f_3 v_emin
1592            0   -2.9061298   0.98518925    1.9835783 -0.048932212 3.5527137e-17   -2.9061298
Averages over the last 47 of 93 rows, steps 3850 to 6130:
Temp PotEng Pxx Pyy Pxy f_3 v_emin
0 -3.01526 0.968045 1.9691 0.00752041 -0.0736398 -3.0889
Loop time of 0.937381 on 4 procs for 4538 steps with 800 atoms

Minimization stats:
  Stopping criterion = force tolerance
  Energy initial, next-to-last, final =
  Force two-norm initial, final = 21.7981 0.937604
  Force max component initial, final = 14.4511 0.431389
  Final line search alpha, max atom move = 0.000547499 0.000236185
  Iterations, force evaluations = 4538 8462

minimize	0.0 1.0e-2 10000 100000
Step Temp PotEng Pxx Pyy Pxy f_3 v_emin
6130            0   -3.0313384   0.95532497    1.9595324   0.10924759 -3.5527137e-17   -3.0313384
Averages over the last 16 of 32 rows, steps 6900 to 7607:
Temp PotEng Pxx Pyy Pxy f_3 v_emin
0 -3.03035 0.999991 1.99998 0.107717 -0.00104146 -3.03139
Loop time of 0.311816 on 4 procs for 1477 steps with 800 atoms

Minimization stats:
  Stopping criterion = force tolerance
  Energy initial, next-to-last, final =
  Force two-norm initial, final = 51.7975 0.00951208
  Force max component initial, final = 38.3845 0.00429369
  Final line search alpha, max atom move = 0.165786 0.000711832
  Iterations, force evaluations = 1477 2954

# Final refinement uses nreset to eliminate stress offset

fix             3 all box/relax x 1.0 y 2.0 vmax 1.0e-3 nreset 100

minimize	0.0 1.0e-4 10000 100000
Step Temp PotEng Pxx Pyy Pxy f_3 v_emin
7607            0   -3.0303527    1.0000104    2.0000131   0.10770259 3.5527137e-17   -3.0303527
Loop time of 0.129036 on 4 procs for 594 steps with 800 atoms

Minimization stats:
  Stopping criterion = force tolerance
  Energy initial, next-to-last, final =
  Force two-norm initial, final = 0.0165847 8.42164e-05
  Force max component initial, final = 0.0112809 5.39223e-05
  Final line search alpha, max atom move = 1 5.39223e-05
  Iterations, force evaluations = 594 1188
