LAMMPS (1 Feb 2014)
# Aspherical shear demo - 3d triangle boxes, solvated by SRD particles

units		lj
atom_style	tri
atom_modify	first big

read_data	data.tri.srd
  orthogonal box = (-8.43734 -8.43734 -8.43734) to (8.43734 8.43734 8.43734)
  reading atoms ...
  1500 atoms
  1500 triangles

# add small particles as hi density lattice

lattice		sc 0.4
Lattice spacing in x,y,z = 1.35721 1.35721 1.35721
region		box block INF INF INF INF INF INF
lattice		sc 20.0
Lattice spacing in x,y,z = 0.368403 0.368403 0.368403
create_atoms	2 region box
Created 91125 atoms

group		big type 1
1500 atoms in group big
group		small type 2
91125 atoms in group small
set		group small mass 0.01
  91125 settings made for mass

# delete overlaps
# must set 1-2 cutoff to non-zero value

pair_style	lj/cut 1.5
pair_coeff	1 1 1.0 1.0
pair_coeff	2 2 0.0 1.0 0.0
pair_coeff	1 2 0.0 1.0

delete_atoms	overlap 1.5 small big
Deleted 76354 atoms, new total = 16271

# SRD run

reset_timestep	0

velocity	small create 1.44 87287 loop geom

neighbor	0.3 bin
neigh_modify	delay 0 every 1 check yes
neigh_modify	exclude molecule big include big

communicate	multi group big vel yes
neigh_modify	include big

# no pairwise interactions with small particles

pair_style	tri/lj 3.5
pair_coeff	1 1 0.1 1.0
pair_coeff	2 2 0.0 1.0 0.0
pair_coeff	1 2 0.0 1.0 0.0

# use fix SRD to push small particles out from inside big ones
# if comment out, big particles won't see SRD particles

timestep	0.001

fix		1 big rigid molecule #langevin 1.0 1.0 0.1 12398
125 rigid bodies with 1500 atoms
fix	        2 small srd 20 big 1.0 0.25 49894 		search 0.2 cubic warn 0.0001 shift yes 49829 		overlap yes collision noslip

fix		3 all deform 1 x scale 0.6 y scale 0.6 z scale 0.6

# diagnostics

compute		tsmall small temp/deform
compute		tbig big temp
variable	pebig equal pe*atoms/count(big)
variable	ebig equal etotal*atoms/count(big)

compute		1 big erotate/asphere
compute		2 all ke
compute		3 all pe
variable	toteng equal (c_1+c_2+c_3)/atoms

thermo		1000
thermo_style	custom step f_1 c_tsmall f_2[9] temp press
thermo_modify	temp tbig

compute		10 all property/atom corner1x corner1y corner1z 		corner2x corner2y corner2z corner3x corner3y corner3z

#dump		1 all custom 500 dump1.atom.srd id type x y z ix iy iz
#dump		2 all custom 500 dump1.tri.srd id type #		c_10[1] c_10[2] c_10[3] c_10[4] c_10[5] c_10[6] #		c_10[7] c_10[8] c_10[9]

run		10000
SRD info:
  SRD/big particles = 14771 1500
  big particle diameter max/min = 1.46014 0.436602
  SRD temperature & lamda = 1 0.2
  SRD max distance & max velocity = 0.8 40
  SRD grid counts: 67 67 67
  SRD grid size: request, actual (xyz) = 0.25, 0.251861 0.251861 0.251861
  SRD per actual grid cell = 0.0647662
  SRD viscosity = -1.09837
  big/SRD mass density ratio = 24.668
  # of rescaled SRD velocities = 0
  ave/max small velocity = 19.9708 35.1504
  ave/max big velocity = 0 0
Step 1 tsmall 2[9] Temp Press
Loop time of 228.558 on 8 procs for 10000 steps with 16271 atoms

Pair  time (%) = 145.018 (63.4492)
Neigh time (%) = 32.6283 (14.2757)
Comm  time (%) = 43.3283 (18.9572)
Outpt time (%) = 0.000848889 (0.00037141)
Other time (%) = 7.58254 (3.31755)

#undump          1
#undump          2
unfix		3

change_box      all triclinic
  triclinic box = (-5.0624 -5.0624 -5.0624) to (5.0624 5.0624 5.0624) with tilt (0 0 0)

fix	        2 small srd 20 big 1.0 0.25 49894 		search 0.2 cubic warn 0.0001 shift yes 49829 		overlap yes collision noslip tstat yes

#dump		1 all custom 500 dump2.atom.srd id type x y z ix iy iz
#dump		2 all custom 500 dump2.tri.srd id type #		c_10[1] c_10[2] c_10[3] c_10[4] c_10[5] c_10[6] #		c_10[7] c_10[8] c_10[9]

fix		3 all deform 1 xy erate 0.05 units box remap v

run		40000
SRD info:
  SRD/big particles = 14771 1500
  big particle diameter max/min = 1.46014 0.436602
  SRD temperature & lamda = 1 0.2
  SRD max distance & max velocity = 0.8 40
  SRD grid counts: 40 40 40
  SRD grid size: request, actual (xyz) = 0.25, 0.25312 0.25312 0.25312
  SRD per actual grid cell = -1.93929
  SRD viscosity = -0.36972
  big/SRD mass density ratio = -0.836253
  # of rescaled SRD velocities = 1
  ave/max small velocity = 16.0639 40
  ave/max big velocity = 2.05735 6.73052
Step 1 tsmall 2[9] Temp Press
Loop time of 1651.84 on 8 procs for 40000 steps with 16271 atoms

Pair  time (%) = 1232.76 (74.6296)
Neigh time (%) = 171.893 (10.4061)
Comm  time (%) = 193.625 (11.7218)
Outpt time (%) = 0.00338289 (0.000204795)
Other time (%) = 53.5578 (3.24231)

Please see the log.cite file for references relevant to this simulation
