LAMMPS (27 Nov 2018)
# GCMC for LJ simple fluid, no dynamics
# T = 2.0
# rho ~ 0.5
# p ~ 1.5
# mu_ex ~ 0.0
# comparable to Frenkel and Smit GCMC Case Study, Figure 5.8

# variables modifiable using -var command line switch

variable        mu index -1.25
variable        temp index 2.0
variable	disp index 1.0
variable        lbox index 5.0

# global model settings

units           lj
atom_style      atomic
pair_style      lj/cut 3.0
pair_modify	tail no # turn of to avoid triggering full_energy

# box

region		box block 0 5.0 0 5.0 0 5.0
create_box	1 box
Created orthogonal box = (0 0 0) to (5 5 5)

# lj parameters

pair_coeff	* * 1.0 1.0
mass		* 1.0

# we recommend setting up a dedicated group for gcmc

group		gcmcgroup type 1
0 atoms in group gcmcgroup

# gcmc

fix             mygcmc gcmcgroup gcmc 1 100 100 1 29494 2.0 -1.25 1.0

# atom count

variable 	type1 atom "type==1"
group 		type1 dynamic gcmcgroup var type1
dynamic group type1 defined
variable        n1 equal count(type1)

# averaging

variable	rho equal density
variable	p equal press
variable	nugget equal 1.0e-8
variable        lambda equal 1.0
variable     	muex equal -1.25-2.0*ln(density*1+1e-08)
fix 		ave all ave/time 10 100 1000 v_rho v_p v_muex v_n1 ave one file rho_vs_p.dat
variable	rhoav equal f_ave[1]
variable	pav equal f_ave[2]
variable	muexav equal f_ave[3]
variable	n1av equal f_ave[4]

# output

variable	tacc equal f_mygcmc[2]/(f_mygcmc[1]+1e-08)
variable	iacc equal f_mygcmc[4]/(f_mygcmc[3]+1e-08)
variable	dacc equal f_mygcmc[6]/(f_mygcmc[5]+1e-08)
compute_modify  thermo_temp dynamic yes
thermo_style    custom step temp press pe ke density atoms v_iacc v_dacc v_tacc v_rhoav v_pav v_muexav v_n1av
thermo          1000

# run

run             10000
  update every 1 steps, delay 10 steps, check yes
Step Temp Press PotEng KinEng Density Atoms v_iacc v_dacc v_tacc v_rhoav v_pav v_muexav v_n1av
0            0            0            0           -0            0        0            0            0            0            0            0            0            0
Averages over the last 6 of 11 rows, steps 5000 to 10000:
Temp Press PotEng KinEng Density Atoms v_iacc v_dacc v_tacc v_rhoav v_pav v_muexav v_n1av
2.07049 1.10325 -3.17795 3.05768 0.517333 64.6667 0.0679549 0.0677537 0.113225 0.531947 1.4235 0.017438 63.27
Loop time of 27.8547 on 1 procs for 10000 steps with 64 atoms
