boundary        p p p

units           metal  # ev, ps
atom_style      dpd    # atomic atom style can also be used
read_data       data.dpd
  orthogonal box = (-64.5 -64.5 -64.5) to (64.5 64.5 64.5)
  reading atoms ...
  10125 atoms
  reading velocities ...
  10125 velocities

comm_modify     mode single vel yes
mass            1 125.9

pair_style      dpd/fdt 300.0 8.6 245455
pair_coeff      1 1 0.075 0.022 8.60

neighbor        2.0 bin
neigh_modify    every 1 delay 0 check no once no

timestep        0.001

fix             2 all nve

variable        totEnergy equal pe+ke

thermo          10
thermo_style    custom step temp press pe ke v_totEnergy
thermo_modify   format float %24.16f

run             1000
  1 neighbor list requests
  update every 1 steps, delay 0 steps, check no
Step Temp Press PotEng KinEng v_totEnergy
0     301.4391322267262012    1549.5478087303108623    1188.6488072196075336     394.4722035796053206    1583.1210107992128542
Averages over the last 51 of 101 rows, steps 500 to 1000:
Temp Press PotEng KinEng v_totEnergy
300.198 1538.03 1189.45 392.849 1582.3
Loop time of 16.4015 on 1 procs for 1000 steps with 10125 atoms
