LAMMPS (6 Jul 2017)
#LAMMPS input script
#in.GD
#see README for details

###############################################################################
#initialize variables
clear

#frequency for outputting info (timesteps)
variable        dump_rate       equal 50
variable        thermo_rate     equal 10

#equilibration time (timesteps)
variable        equil           equal 1000

#stabilization time (timesteps to reach steady-state)
variable        stabil          equal 1000

#data collection time (timesteps)
variable        run             equal 2000

#length of pipe
variable        L               equal 30

#width of pipe
variable        d               equal 20

#flux (mass/sigma*tau)
variable        J               equal 0.1

#simulation box dimensions
variable        Lx              equal 100
variable        Ly              equal 40

#bulk fluid density
variable        dens            equal 0.8

#lattice spacing for wall atoms
variable        aWall           equal 1.0 #1.7472

#timestep
variable        ts              equal 0.001

#temperature
variable        T               equal 2.0

#thermostat damping constant
variable        tdamp           equal 0.001*100

units           lj
dimension       2
atom_style      atomic

###############################################################################
#create box

#create lattice with the spacing aWall
variable        rhoWall         equal 1^(-2)
lattice         sq 1
Lattice spacing in x,y,z = 1 1 1

#modify input dimensions to be multiples of aWall
variable        L1 equal round(30/1)*1
variable        d1 equal round(20/1)*1
variable        Ly1 equal round(40/1)*1
variable        Lx1 equal round(100/1)*1

#create simulation box
variable        lx2 equal 100/2
variable        ly2 equal 40/2
region          simbox block -50 50 -20 20 0 0.1 units box
create_box      2 simbox
Created orthogonal box = (-50 -20 0) to (50 20 0.1)

#####################################################################
#set up potential

mass            1 1.0           #fluid atoms
mass            2 1.0           #wall atoms

pair_style      lj/cut 2.5
pair_modify     shift yes
pair_coeff      1 1 1.0 1.0 2.5
pair_coeff      1 2 1.0 1.0 1.12246
pair_coeff      2 2 0.0 0.0

neigh_modify  exclude type 2 2

timestep        0.001

#####################################################################
#create atoms

#create wall atoms everywhere
create_atoms    2 box
Created 4000 atoms

#define region which is "walled off"
variable        dhalf equal 20/2
variable        Lhalf equal 30/2
region          walltop block -15 15 10 EDGE -0.1 0.1                 units box
region          wallbot block -15 15 EDGE -10 -0.1 0.1                 units box
region          outsidewall union 2 walltop wallbot side out

#remove wall atoms outside wall region
group           outside region outsidewall
3349 atoms in group outside
delete_atoms    group outside
Deleted 3349 atoms, new total = 651

#remove wall atoms that aren't on edge of wall region
variable        x1 equal 15-1
variable        y1 equal 10+1
region          insideTop block -14 14 11 EDGE -0.1 0.1 units box
region          insideBot block -14 14 EDGE -11 -0.1 0.1 units box
region          insideWall union 2 insideTop insideBot
group           insideWall region insideWall
551 atoms in group insideWall
delete_atoms    group insideWall
Deleted 551 atoms, new total = 100

#define new lattice, to give correct fluid density
#y lattice const must be a multiple of aWall
variable        atrue equal 0.8^(-1/2)
variable        ay equal round(1.11803398874989/1)*1

#choose x lattice const to give correct density
variable        ax equal (1*0.8)^(-1)

#change Lx to be multiple of ax
variable        Lx1 equal round(100/1.25)*1.25
variable        lx2 equal 100/2
change_box      all x final -50 50 units box
  orthogonal box = (-50 -20 0) to (50 20 0.1)

#define new lattice
lattice         custom 0.8                 a1 1.25 0.0 0.0 a2 0.0 1 0.0 a3 0.0 0.0 1.0                 basis 0.0 0.0 0.0
Lattice spacing in x,y,z = 1.25 1 1

#fill in rest of box with bulk particles
variable        delta equal 0.001
variable        Ldelt equal 15+0.001
variable        dDelt equal 10-0.001
region          left block EDGE -15.001 EDGE EDGE -0.1 0.1 units box
region          right block 15.001 EDGE EDGE EDGE -0.1 0.1 units box
region          pipe block -15.001 15.001 -9.999 9.999 -0.1 0.1                 units box

region          bulk union 3 left pipe right
create_atoms    1 region bulk
Created 2675 atoms

group           bulk type 1
2675 atoms in group bulk
group           wall type 2
100 atoms in group wall

#remove atoms that are too close to wall
delete_atoms    overlap 0.9 bulk wall
  update every 1 steps, delay 10 steps, check yes
Deleted 0 atoms, new total = 2775

neighbor        0.3 bin
neigh_modify    delay 0 every 1 check yes
neigh_modify    exclude group wall wall

velocity        bulk create $T 78915 dist gaussian rot yes mom yes loop geom
velocity        bulk create 2 78915 dist gaussian rot yes mom yes loop geom

#####################################################################
#set up PUT
#see Evans and Morriss, Phys. Rev. Lett. 56(20) 1986, p. 2172

#average number of particles per box, Evans and Morriss used 2.0
variable        NperBox equal 8.0

#calculate box sizes
variable        boxSide equal sqrt(8/0.8)
variable        nX equal round(lx/3.16227766016838)
variable        nY equal round(ly/3.16227766016838)
variable        dX equal lx/32
variable        dY equal ly/13

#temperature of fluid (excluding wall)
compute         myT bulk temp

#profile-unbiased temperature of fluid
compute         myTp bulk temp/profile 1 1 0 xy 32 13

#thermo setup
thermo          10
thermo_style    custom step c_myT c_myTp etotal press

#dump initial configuration
# dump            55 all custom 1 all.init.lammpstrj id type x y z vx vy vz
# dump            56 wall custom 1 wall.init.lammpstrj id type x y z
# dump_modify     55 sort id
# dump_modify     56 sort id
run             0
  update every 1 steps, delay 0 steps, check yes
Step c_myT c_myTp TotEng Press
0            2    2.0555109   0.77892922    7.3417096
Loop time of 9.53674e-07 on 1 procs for 0 steps with 2775 atoms

# undump          55
# undump          56

#####################################################################
#equilibrate without GD

fix             nvt bulk nvt temp 2 2 0.1
fix_modify      nvt temp myTp
fix             2 bulk enforce2d

run             1000
Step c_myT c_myTp TotEng Press
0            2    2.0555109   0.77892922    7.3417096
Averages over the last 51 of 101 rows, steps 500 to 1000:
c_myT c_myTp TotEng Press
1.94407 1.99028 0.448308 6.5269
Loop time of 1.307 on 1 procs for 1000 steps with 2775 atoms

#####################################################################
#initialize the COM velocity and run to achieve steady-state

#calculate velocity to add: V=J/rho_total
variable        Vadd            equal $J*lx*ly/count(bulk)
variable        Vadd            equal 0.1*lx*ly/count(bulk)

#first remove any COM velocity, then add back the streaming velocity
velocity        bulk zero linear
velocity        bulk set 0.149532710280374 0.0 0.0 units box sum yes mom no

fix             GD bulk flow/gauss 1 0 0 #energy yes
#fix_modify     GD energy yes

run             1000
Step c_myT c_myTp TotEng Press
1000    1.9466974    1.9662384   0.45804438     6.615449
Averages over the last 51 of 101 rows, steps 1500 to 2000:
c_myT c_myTp TotEng Press
1.96157 1.99441 0.475466 6.54699
Loop time of 1.34877 on 1 procs for 1000 steps with 2775 atoms

#####################################################################
#collect data

#print the applied force and total flux to ensure conservation of Jx
variable        Fapp equal f_GD[1]
compute         vxBulk bulk reduce sum vx
compute         vyBulk bulk reduce sum vy
variable        invVol equal 1.0/(lx*ly)
variable        jx equal c_vxBulk*0.00025
variable        jy equal c_vyBulk*0.00025
variable        curr_step equal step
variable        p_Fapp format Fapp %.3f
variable        p_jx format jx %.5g
variable        p_jy format jy %.5g

#compute IK1 pressure profile
#see Todd, Evans, and Davis, Phys. Rev. E 52(2) 1995, p. 1627
#use profile-unbiased temperature to remove the streaming velocity
#from the kinetic part of the pressure
compute         spa bulk stress/atom myTp

#for the pressure profile, use the same grid as the PUT
compute         chunkX bulk chunk/atom bin/1d x lower 3.125 units box

#output pressure profile and other profiles
#the pressure profile is (-1/2V)*(c_spa[1] + c_spa[2]), where
#V is the volume of a slice
fix             profiles bulk ave/chunk 1 1 50 chunkX                 vx density/mass  c_spa[1] c_spa[2]                 file x_profiles ave running overwrite

#compute velocity profile across the pipe with a finer grid
variable        dYnew equal 3.07692307692308/10
compute         chunkY bulk chunk/atom bin/1d y center 0.307692307692308 units box                 region pipe
fix             velYprof bulk ave/chunk 1 1 50 chunkY                 vx file Vy_profile ave running overwrite

#full trajectory
# dump_modify     7 sort id

run             2000
Step c_myT c_myTp TotEng Press
2000    2.0302713    2.0802515   0.53472229    6.5470853
Averages over the last 101 of 201 rows, steps 3000 to 4000:
c_myT c_myTp TotEng Press
1.95959 2.00861 0.471222 6.59854
Loop time of 2.49114 on 1 procs for 2000 steps with 2775 atoms

Please see the log.cite file for references relevant to this simulation
