LAMMPS (13 Oct 2016)
# sample LAMMPS input script for viscosity of 2d LJ liquid
# Einstein form of Green-Kubo

# settings

variable	x equal 20
variable	y equal 20

variable	rho equal 0.6
variable        t equal 1.0
variable	rc equal 2.5

variable    p equal 400     # correlation length
variable    s equal 5       # sample interval
variable    d equal $p*$s   # dump interval
variable    d equal 400*$s
variable    d equal 400*5

# problem setup

units		lj
dimension	2
atom_style	atomic
neigh_modify	delay 0 every 1

lattice         sq2 0.6
Lattice spacing in x,y,z = 1.82574 1.82574 1.82574
region          simbox block 0 $x 0 $y -0.1 0.1
region          simbox block 0 20 0 $y -0.1 0.1
region          simbox block 0 20 0 20 -0.1 0.1
create_box      1 simbox
Created orthogonal box = (0 0 -0.182574) to (36.5148 36.5148 0.182574)
create_atoms    1 box
Created 800 atoms

pair_style      lj/cut 2.5
pair_coeff      * * 1 1

mass            * 1.0
velocity        all create $t 97287
velocity        all create 1 97287

# equilibration run

fix             1 all nve
fix	        2 all langevin $t $t 0.1 498094
fix	        2 all langevin 1 $t 0.1 498094
fix	        2 all langevin 1 1 0.1 498094
fix	        3 all enforce2d

thermo          $d
thermo          2000
run	        10000
  1 neighbor list requests
  update every 1 steps, delay 0 steps, check yes
Step Temp E_pair E_mol TotEng Press
0            1     -1.56492            0     -0.56617    -1.535262
Loop time of 1.69247 on 1 procs for 10000 steps with 800 atoms

velocity	all scale $t
velocity	all scale 1

unfix		2

# Einstein viscosity calculation

reset_timestep  0

# Define distinct components of symmetric traceless stress tensor

variable         pxy equal pxy
variable         pxx equal pxx-press

fix              avstress all ave/time $s $p $d v_pxy v_pxx ave one file einstein.dat
fix              avstress all ave/time 5 $p $d v_pxy v_pxx ave one file einstein.dat
fix              avstress all ave/time 5 400 $d v_pxy v_pxx ave one file einstein.dat
fix              avstress all ave/time 5 400 2000 v_pxy v_pxx ave one file einstein.dat

# Diagonal components of SS are larger by factor 2-2/d,
# which is 4/3 for d=3, but 1 for d=2.
# See Daivis and Evans, J.Chem.Phys, 100, 541-547 (1994)

variable         scale equal vol/(2.0*$t*dt*$d)
variable         scale equal vol/(2.0*1*dt*$d)
variable         scale equal vol/(2.0*1*dt*2000)
variable         diagfac equal 2-2/2
variable         deltasqxy equal (f_avstress[1]*$d*dt)^2
variable         deltasqxy equal (f_avstress[1]*2000*dt)^2
variable         deltasqxx equal (f_avstress[2]*2000*dt)^2/1

# compute mean square displacements as running averages

fix              avdeltasq all ave/time $d 1 $d v_deltasqxy v_deltasqxx ave running
fix              avdeltasq all ave/time 2000 1 $d v_deltasqxy v_deltasqxx ave running
fix              avdeltasq all ave/time 2000 1 2000 v_deltasqxy v_deltasqxx ave running

# convert to viscosities

variable         vxy equal f_avdeltasq[1]*66.6666666666667
variable         vxx equal f_avdeltasq[2]*66.6666666666667

thermo_style     custom step temp pe press pxy v_vxy v_vxx

run              500000
Step Temp PotEng Press Pxy v_vxy v_vxx
0            1   -1.5834783   0.93637929  0.013123478            0            0
Averages over the last 126 of 251 rows, steps 250000 to 500000:
Temp PotEng Press Pxy v_vxy v_vxx
1.00689 -1.58997 1.00274 -0.0157956 0.833646 1.09383
Loop time of 70.5997 on 1 procs for 500000 steps with 800 atoms

variable         etaxy equal v_vxy
variable         etaxx equal v_vxx
variable         eta equal 0.5*(0.951854813936217+1.09698487634149)
running average viscosity: 1.02441984513885
