LAMMPS (13 Oct 2016)
# sample LAMMPS input script for viscosity of 2d LJ liquid
# NEMD via fix deform and fix nvt/sllod

# settings

variable	x equal 20
variable	y equal 20

variable	rho equal 0.6
variable        t equal 1.0
variable	rc equal 2.5

variable	srate equal 2.7 # velocity of top edge

# problem setup

units		lj
dimension	2
atom_style	atomic
neigh_modify	delay 0 every 1

# problem setup

lattice         sq2 0.6
Lattice spacing in x,y,z = 1.82574 1.82574 1.82574
region          simbox prism 0 $x 0 $y -0.1 0.1 0.0 0.0 0.0
region          simbox prism 0 20 0 $y -0.1 0.1 0.0 0.0 0.0
region          simbox prism 0 20 0 20 -0.1 0.1 0.0 0.0 0.0
create_box      1 simbox
Created triclinic box = (0 0 -0.182574) to (36.5148 36.5148 0.182574) with tilt (0 0 0)
create_atoms    1 box
Created 800 atoms

pair_style      lj/cut 2.5
pair_coeff      * * 1 1

mass            * 1.0
velocity        all create $t 97287
velocity        all create 1 97287

fix             1 all nve
fix	        2 all langevin $t $t 0.1 498094
fix	        2 all langevin 1 $t 0.1 498094
fix	        2 all langevin 1 1 0.1 498094
fix	        3 all enforce2d

# equilibration run

thermo          1000
run	        5000
  1 neighbor list requests
  update every 1 steps, delay 0 steps, check yes
Step Temp E_pair E_mol TotEng Press
0            1     -1.56492            0     -0.56617    -1.535262
Loop time of 0.896852 on 1 procs for 5000 steps with 800 atoms

unfix  	        1
unfix		2

# turn on NEMD shear and equilibrate some more

velocity	all scale $t
velocity	all scale 1

# shear rate defined relative to perpendicular dimension

variable	xyrate equal 2.7/ly

fix		1 all nvt/sllod temp $t $t 0.1
fix		1 all nvt/sllod temp 1 $t 0.1
fix		1 all nvt/sllod temp 1 1 0.1
fix		2 all deform 1 xy erate 0.0739425452631974 remap v

compute         layers all chunk/atom bin/1d y center 0.05 units reduced
fix		4 all ave/chunk 20 250 5000 layers vx file profile.nemd.2d

compute		usual all temp
compute		tilt all temp/deform

thermo          1000
thermo_style	custom step temp c_usual epair etotal press pxy
thermo_modify	temp tilt
run		50000
Step Temp c_usual E_pair TotEng Press Pxy
5000    2.2074694            1   -1.6087309   0.59597914    1.6684033  -0.13173628
Averages over the last 26 of 51 rows, steps 30000 to 55000:
Temp c_usual E_pair TotEng Press Pxy
1.00097 1.90993 -1.60339 -0.603668 0.968525 -0.10646
Loop time of 12.3385 on 1 procs for 50000 steps with 800 atoms

# data gathering run

variable	visc equal -pxy/(v_srate/ly)
fix		vave all ave/time 10 100 1000 v_visc ave running start 56000

thermo_style	custom step temp press pxy v_visc f_vave
thermo_modify	temp tilt

# only need to run for 5400 steps to make a good 100-frame movie
# set 54K steps above in equil and 5400 here simply to make good movie
# 54K and 5400 are multiples of box-swap periodicity = 2700 steps

#dump	        1 all custom 50 dump.nemd.2d id type x y z vx

#dump		2 all image 50 image.*.jpg vx type zoom 1.2 adiam 1.2

run		50000
Step Temp Press Pxy v_visc f_vave
55000    1.0101742    1.0168023  -0.24961054    3.3757364            0
Averages over the last 26 of 51 rows, steps 80000 to 105000:
Temp Press Pxy v_visc f_vave
0.987023 1.00275 -0.0948424 1.28265 1.15206
Loop time of 12.8562 on 1 procs for 50000 steps with 800 atoms
