LAMMPS (13 Oct 2016)
# sample LAMMPS input script for viscosity of 2d LJ liquid
# Muller-Plathe via fix viscosity

# settings

variable	x equal 20
variable	y equal 20

variable	rho equal 0.6
variable        t equal 1.0
variable	rc equal 2.5

# problem setup

units		lj
dimension	2
atom_style	atomic
neigh_modify	delay 0 every 1

lattice         sq2 0.6
Lattice spacing in x,y,z = 1.82574 1.82574 1.82574
region          simbox block 0 $x 0 $y -0.1 0.1
region          simbox block 0 20 0 $y -0.1 0.1
region          simbox block 0 20 0 20 -0.1 0.1
create_box      1 simbox
Created orthogonal box = (0 0 -0.182574) to (36.5148 36.5148 0.182574)
create_atoms    1 box
Created 800 atoms

pair_style      lj/cut 2.5
pair_coeff      * * 1 1

mass            * 1.0
velocity        all create $t 97287
velocity        all create 1 97287

fix             1 all nve
fix	        2 all langevin $t $t 0.1 498094
fix	        2 all langevin 1 $t 0.1 498094
fix	        2 all langevin 1 1 0.1 498094
fix	        3 all enforce2d

# equilibration run

thermo          1000
run	        5000
  1 neighbor list requests
  update every 1 steps, delay 0 steps, check yes
Step Temp E_pair E_mol TotEng Press
0            1     -1.56492            0     -0.56617    -1.535262
Loop time of 0.860626 on 1 procs for 5000 steps with 800 atoms

unfix		2

# turn on Muller-Plathe driving force and equilibrate some more

velocity	all scale $t
velocity	all scale 1

fix		4 all viscosity 100 x y 20

compute         layers all chunk/atom bin/1d y center 0.05 units reduced
fix		5 all ave/chunk 20 50 1000 layers vx file profile.mp.2d

# equilibration run

variable	dVx equal f_5[11][3]-f_5[1][3]

thermo          1000
thermo_style	custom step temp epair etotal press f_4 v_dVx
run		20000
Step Temp E_pair TotEng Press f_4 v_dVx
5000            1   -1.6155061  -0.61675613   0.82878859            0            0
Averages over the last 11 of 21 rows, steps 15000 to 25000:
Temp E_pair TotEng Press f_4 v_dVx
0.991884 -1.60774 -0.617098 0.93802 -447.724 1.3199
Loop time of 2.83606 on 1 procs for 20000 steps with 800 atoms

# data gathering run
# reset fix viscosity to zero flux accumulation

unfix		4
fix		4 all viscosity 100 x y 20

variable	visc equal -(f_4/(2*(step*0.005-125)*lx+1.0e-10))/(v_dVx/(ly/2))
fix		vave all ave/time 1000 1 1000 v_visc ave running start 26000

thermo_style	custom step temp f_4 v_dVx v_visc f_vave

# only need to run for 10000 steps to make a good 100-frame movie

#dump	        1 all custom 100 dump.mp.2d id type x y z vx

#dump		2 all image 100 image.*.jpg vx type zoom 1.6 adiam 1.2
#dump_modify	2 pad 5 amap -0.7 0.7 ca 0.0 2 min blue max red

run	        50000
Step Temp f_4 v_dVx v_visc f_vave
25000   0.98672719            0    1.5256433           -0            0
Averages over the last 26 of 51 rows, steps 50000 to 75000:
Temp f_4 v_dVx v_visc f_vave
1.00817 -1009.74 1.37199 0.988488 0.938682
Loop time of 7.08146 on 1 procs for 50000 steps with 800 atoms
