LAMMPS (19 Sep 2019)
# GJF-2GJ thermostat

units   	metal
atom_style      full

boundary 	p p p
read_data argon.lmp
  orthogonal box = (0 0 0) to (32.146 32.146 32.146)
  reading atoms ...
  864 atoms

include ff-argon.lmp
#############################
#Atoms types - mass - charge#
#############################
#@ 1 atom types #!THIS LINE IS NECESSARY DON'T SPEND HOURS FINDING THAT OUT!#

variable Ar equal 1

#############
#Atom Masses#
#############

mass 1      39.903

###########################
#Pair Potentials - Tersoff#
###########################

pair_style      lj/cubic
pair_coeff      * * 0.0102701 3.42

velocity all create 10 2357 mom yes dist gaussian

neighbor 1 bin

timestep 0.1

fix lang all langevin 10 10 1 26488 gjf vhalf
fix nve all nve

thermo 200
run 5000
  update every 1 steps, delay 10 steps, check yes
Step Temp E_pair E_mol TotEng Press
0    11.080223   -56.207655            0    -54.97164    37.215524
Averages over the last 13 of 26 rows, steps 2600 to 5000:
Temp E_pair E_mol TotEng Press
9.92927 -55.1257 0 -54.0181 330.665
Loop time of 2.29551 on 1 procs for 5000 steps with 864 atoms
