LAMMPS (23 Jun 2017)
units lj
atom_style ellipsoid
boundary p p f
read_data Data_wall
  orthogonal box = (0 0 0) to (60 60 60)
  reading atoms ...
  1 atoms
  1 ellipsoids
  reading velocities ...
  1 velocities
#------------------------------------#
pair_style resquared 1
pair_coeff 1 1 10.0 1.0 0.5 0.5 4 0.5 0.5 4 1
#------------------------------------#
timestep 0.0002
#------------------------------------#

compute temp all temp/asphere
thermo_modify temp temp

fix EES_substrate all wall/ees zhi EDGE 10 1 10 zlo EDGE 10 1 10
#^^^^^^^^^^^^^^^^^^^^^^^^^^^^^^^^^^^^^^^^^^^^^^^^^^^^^^^^^^^^^^^#

thermo_style custom step temp press etotal f_EES_substrate f_EES_substrate[1]

fix NVE all nve/asphere
#------------------------------------#
compute qw all  property/atom quatw
compute qi all  property/atom quati
compute qj all  property/atom quatj
compute qk all  property/atom quatk
#------------------------------------#
thermo 500
#dump 1 all custom 1000 dump_substrate id type x y z c_qw c_qi c_qj c_qk
run 40000
  update every 1 steps, delay 10 steps, check yes
Step Temp Press TotEng f_EES_substrate f_EES_substrate[1]
0            0 0.00054301475            0            0            0
Averages over the last 41 of 81 rows, steps 20000 to 40000:
Temp Press TotEng f_EES_substrate f_EES_substrate[1]
0 0.000543005 0 0.00130926 0.267482
Loop time of 0.111517 on 1 procs for 40000 steps with 1 atoms
