LAMMPS (23 Jun 2017)
units lj
atom_style ellipsoid
boundary p p p
read_data Data_region
  orthogonal box = (0 0 0) to (60 60 60)
  reading atoms ...
  3 atoms
  3 ellipsoids
  reading velocities ...
  3 velocities
#------------------------------------#
region the_wall block 20. 40. 20. 40. 20. 40. side out
#------------------------------------#
pair_style resquared 1
pair_coeff 1 1 10.0 1.0 0.5 0.5 4 0.5 0.5 4 1
#------------------------------------#
timestep 0.0005
#------------------------------------#

fix EES_block all wall/region/ees the_wall 10. 1. 20
#^^^^^^^^^^^^^^^^^^^^^^^^^^^^^^^^^^^^^^^^^^^^^^^^^^^#

thermo_style custom step temp press etotal f_EES_block[1] f_EES_block[3]

fix NVE all nve/asphere
#------------------------------------#
compute qw all  property/atom quatw
compute qi all  property/atom quati
compute qj all  property/atom quatj
compute qk all  property/atom quatk
#------------------------------------#
thermo 500
#dump 1 all custom 1000 dump_region id type x y z c_qw c_qi c_qj c_qk
run 50000
  update every 1 steps, delay 10 steps, check yes
Step Temp Press TotEng f_EES_block[1] f_EES_block[3]
0    161.26842 0.0014932261    161.26842 -0.00042715909 -0.00015747012
Averages over the last 51 of 101 rows, steps 25000 to 50000:
Temp Press TotEng f_EES_block[1] f_EES_block[3]
141.219 0.00130758 141.219 -30.4538 -5.91218e-05
Loop time of 0.483531 on 4 procs for 50000 steps with 3 atoms
