LAMMPS (22 Aug 2018)
# 2d NEMD simulation - no client/server mode

units		lj
atom_style	atomic
dimension	2

lattice		sq2 0.8442
Lattice spacing in x,y,z = 1.53919 1.53919 1.53919
region		box prism 0 10 0 8 -0.5 0.5 0 0 0
create_box	2 box
Created triclinic box = (0 0 -0.769595) to (15.3919 12.3135 0.769595) with tilt (0 0 0)
create_atoms	1 box
Created 160 atoms
  Time spent = 0.000396967 secs
mass		* 1.0

velocity	all create 1.44 87287 loop geom

region		slice block 4 6 INF INF INF INF
set		region slice type 2
  40 settings made for type

pair_style	lj/cut 2.5
pair_coeff	* * 1.0 1.0 1.0

neighbor	0.3 bin
neigh_modify	delay 0 every 1 check yes

fix		1 all nvt/sllod temp 1.0 1.0 1.0 tchain 1
fix		2 all deform 1 xy erate 0.01 remap v

thermo_style    custom step temp epair etotal press xy

thermo		1000
run		50000
  update every 1 steps, delay 0 steps, check yes
Step Temp E_pair TotEng Press Xy
0         1.44            0        1.431    1.2080502            0
Averages over the last 26 of 51 rows, steps 25000 to 50000:
Temp E_pair TotEng Press Xy
1.03635 0.285828 1.3157 6.39608 0
Loop time of 0.92653 on 1 procs for 50000 steps with 160 atoms
