LAMMPS (27 Nov 2018)
# 2d LJ obstacle flow

dimension	2
boundary	p s p

atom_style	atomic
neighbor	0.3 bin
neigh_modify	delay 5

# create geometry

lattice		hex 0.7
Lattice spacing in x,y,z = 1.28436 2.22457 1.28436
region		box block 0 40 0 10 -0.25 0.25
create_box	3 box
Created orthogonal box = (0 0 -0.321089) to (51.3743 22.2457 0.321089)
create_atoms	1 box
Created 840 atoms
  Time spent = 0.0004704 secs

mass		1 1.0
mass		2 1.0
mass		3 1.0

# LJ potentials

pair_style	lj/cut 1.12246
pair_coeff	* * 1.0 1.0 1.12246

# define groups

region	        1 block INF INF INF 1.25 INF INF
group		lower region 1
120 atoms in group lower
region		2 block INF INF 8.75 INF INF INF
group		upper region 2
120 atoms in group upper
group		boundary union lower upper
240 atoms in group boundary
group		flow subtract all boundary
600 atoms in group flow

set		group lower type 2
  120 settings made for type
set		group upper type 3
  120 settings made for type

# initial velocities

compute	        mobile flow temp
velocity	flow create 1.0 482748 temp mobile
fix		1 all nve
fix		2 flow temp/rescale 200 1.0 1.0 0.02 1.0
fix_modify	2 temp mobile

# Poiselle flow

velocity	boundary set 0.0 0.0 0.0
fix		3 lower setforce 0.0 0.0 0.0
fix		4 upper setforce 0.0 NULL 0.0
fix		5 upper aveforce 0.0 -0.5 0.0
fix		6 flow addforce 1.0 0.0 0.0

# 2 obstacles

region		void1 sphere 10 4 0 3
delete_atoms	region void1
Deleted 36 atoms, new total = 804
region		void2 sphere 20 7 0 3
delete_atoms	region void2
Deleted 35 atoms, new total = 769

fix		7 flow indent 100 sphere 10 4 0 4
fix		8 flow indent 100 sphere 20 7 0 4
fix		9 all enforce2d

# Run

timestep	0.003
thermo		1000
thermo_modify	temp mobile

#dump		1 all atom 100 dump.obstacle

#dump		2 all image 500 image.*.jpg type type #		zoom 1.6 adiam 1.5
#dump_modify	2 pad 5

#dump		3 all movie 500 movie.mpg type type #		zoom 1.6 adiam 1.5
#dump_modify	3 pad 5

run		25000
  update every 1 steps, delay 5 steps, check yes
Step Temp E_pair E_mol TotEng Press Volume
0    1.0027471            0            0   0.68849216   0.46317653    1143.0857
Averages over the last 13 of 26 rows, steps 13000 to 25000:
Temp E_pair E_mol TotEng Press Volume
1 -0.372573 0 0.314033 1.01715 1457.89
Loop time of 1.98053 on 1 procs for 25000 steps with 769 atoms
