LAMMPS (17 Aug 2017)
Processor partition = 6
# Solvated 5-mer peptide
# Demonstrating temper/npt
units           real
atom_style      full

pair_style      lj/charmm/coul/long 8.0 10.0 10.0
bond_style      harmonic
angle_style     charmm
dihedral_style  charmm
improper_style  harmonic
kspace_style    pppm 0.0001

read_data       data.peptide
  orthogonal box = (36.8402 41.0137 29.7681) to (64.2116 68.3851 57.1395)
  reading atoms ...
  2004 atoms
  reading velocities ...
  2004 velocities
  scanning bonds ...
  scanning angles ...
  scanning dihedrals ...
  scanning impropers ...
  reading bonds ...
  1365 bonds
  reading angles ...
  786 angles
  reading dihedrals ...
  207 dihedrals
  reading impropers ...
  12 impropers

neighbor        2.0 bin
neigh_modify    delay 5

timestep        2.0

thermo_style    custom step temp epair emol etotal press density
thermo          50

variable        temper_T world 275 280 285 290 295 300 305 310
variable        rep world 0 1 2 3 4 5 6 7
fix             myfix all npt temp 305 305 100.0 iso 1 1 1000
run             500
PPPM initialization ...
  G vector (1/distance) = 0.268725
  grid = 15 15 15
  stencil order = 5
  estimated absolute RMS force accuracy = 0.0228209
  estimated relative force accuracy = 6.87243e-05
  3d grid and FFT values/proc = 6776 1800
  update every 1 steps, delay 5 steps, check yes
Step Temp E_pair E_mol TotEng Press Density
0     190.0857    -6442.768    70.391457   -5237.4579    20361.998   0.98480122
Loop time of 10.8893 on 2 procs for 500 steps with 2004 atoms

temper/npt      2000 100 305 myfix 0 58728 1
PPPM initialization ...
  G vector (1/distance) = 0.268487
  grid = 15 15 15
  stencil order = 5
  estimated absolute RMS force accuracy = 0.0230158
  estimated relative force accuracy = 6.93113e-05
  3d grid and FFT values/proc = 6776 1800
Step Temp E_pair E_mol TotEng Press Density
500    296.45297   -6312.4159    719.53961   -3822.8853    8469.2763   0.97646495
Averages over the last 21 of 41 rows, steps 1500 to 2500:
Temp E_pair E_mol TotEng Press Density
303.882 -6636.55 958.598 -3863.61 -249.256 0.986694
Loop time of 46.7431 on 2 procs for 2000 steps with 2004 atoms

fix             2 all shake 0.0001 10 100 b 4 6 8 10 12 14 18 a 31
group           peptide type <= 12
84 atoms in group peptide
