LAMMPS (13 Oct 2016)
# sample LAMMPS input script for thermal conductivity of liquid LJ
# use fix heat to add/subtract energy from 2 regions

# settings

variable	x equal 10
variable	y equal 10
variable	z equal 20

variable	rho equal 0.6
variable        t equal 1.35
variable	rc equal 2.5

#variable	rho equal 0.85
#variable        t equal 0.7
#variable	rc equal 3.0

# setup problem

units		lj
atom_style	atomic

lattice		fcc 0.6
Lattice spacing in x,y,z = 1.88207 1.88207 1.88207
region		box block 0 $x 0 $y 0 $z
region		box block 0 10 0 $y 0 $z
region		box block 0 10 0 10 0 $z
region		box block 0 10 0 10 0 20
create_box	1 box
Created orthogonal box = (0 0 0) to (18.8207 18.8207 37.6414)
create_atoms	1 box
Created 8000 atoms
mass		1 1.0

velocity	all create $t 87287
velocity	all create 1.35 87287

pair_style	lj/cut 2.5
pair_coeff	1 1 1.0 1.0

neighbor	0.3 bin
neigh_modify	delay 0 every 1

# heat layers

region          hot block INF INF INF INF 0 1
region          cold block  INF INF INF INF 10 11
compute         Thot all temp/region hot
compute         Tcold all temp/region cold

# 1st equilibration run

fix             1 all nvt temp $t $t 0.5
fix             1 all nvt temp 1.35 $t 0.5
fix             1 all nvt temp 1.35 1.35 0.5
thermo	        100
run             1000
  1 neighbor list requests
  update every 1 steps, delay 0 steps, check yes
Step Temp E_pair E_mol TotEng Press
0         1.35   -4.1241917            0   -2.0994448   -3.1961612
Averages over the last 6 of 11 rows, steps 500 to 1000:
Temp E_pair E_mol TotEng Press
1.35275 -3.70205 0 -1.67318 0.863349
Loop time of 0.872163 on 8 procs for 1000 steps with 8000 atoms

velocity	all scale $t
velocity	all scale 1.35

unfix		1

# 2nd equilibration run

fix		1 all nve
fix             hot all heat 1 100.0 region hot
fix             cold all heat 1 -100.0 region cold

thermo_style    custom step temp c_Thot c_Tcold
thermo	        1000
run             10000
Step Temp c_Thot c_Tcold
1000         1.35     1.431295    1.2955644
Averages over the last 6 of 11 rows, steps 6000 to 11000:
Temp c_Thot c_Tcold
1.36872 1.69567 1.12597
Loop time of 10.3395 on 8 procs for 10000 steps with 8000 atoms

# thermal conductivity calculation

compute		ke all ke/atom
variable	temp atom c_ke/1.5

compute         layers all chunk/atom bin/1d z lower 0.05 units reduced
fix		2 all ave/chunk 10 100 1000 layers v_temp file profile.heat

variable        tdiff equal f_2[11][3]-f_2[1][3]
fix             ave all ave/time 1 1 1000 v_tdiff ave running start 13000
thermo_style    custom step temp c_Thot c_Tcold v_tdiff f_ave

run             20000
Step Temp c_Thot c_Tcold v_tdiff f_ave
11000    1.3716416     1.833336    1.1267278            0            0
Averages over the last 11 of 21 rows, steps 21000 to 31000:
Temp c_Thot c_Tcold v_tdiff f_ave
1.38199 1.81653 1.0744 -0.749845 -0.746094
Loop time of 22.4057 on 8 procs for 20000 steps with 8000 atoms
