LAMMPS (1 Feb 2014)
# Aspherical shear demo - 2d line boxes, solvated by SRD particles

units		lj
atom_style	line
atom_modify	first big
dimension	2

read_data	data.line.srd
  orthogonal box = (-28.7968 -28.7968 -0.5) to (28.7968 28.7968 0.5)
  reading atoms ...
  400 atoms
  400 lines

# add small particles as hi density lattice

lattice		sq 0.4
Lattice spacing in x,y,z = 1.58114 1.58114 1.58114
region		plane block INF INF INF INF -0.001 0.001
lattice		sq 10.0
Lattice spacing in x,y,z = 0.316228 0.316228 0.316228
create_atoms	2 region plane
Created 33489 atoms

group		big type 1
400 atoms in group big
group		small type 2
33489 atoms in group small
set		group small mass 0.01
  33489 settings made for mass

# delete overlaps
# must set 1-2 cutoff to non-zero value

pair_style	lj/cut 1.5
pair_coeff	1 1 1.0 1.0
pair_coeff	2 2 0.0 1.0 0.0
pair_coeff	1 2 0.0 1.0

delete_atoms	overlap 1.5 small big
Deleted 13605 atoms, new total = 20284

# SRD run

reset_timestep	0

velocity	small create 1.44 87287 loop geom

neighbor	0.3 bin
neigh_modify	delay 0 every 1 check yes
neigh_modify	exclude molecule big include big

communicate	multi group big vel yes
neigh_modify	include big

# no pairwise interactions with small particles

pair_style	line/lj 2.5
pair_coeff	1 1 1.0 1.0
pair_coeff	2 2 0.0 1.0 0.0
pair_coeff	1 2 0.0 1.0 0.0

# use fix SRD to push small particles out from inside big ones
# if comment out, big particles won't see SRD particles

timestep	0.001

fix		1 big rigid molecule
100 rigid bodies with 400 atoms
fix	        2 small srd 20 big 1.0 0.25 49894 		search 0.2 cubic warn 0.0001 shift yes 49829 		overlap yes collision noslip

fix		3 all deform 1 x scale 0.35 y scale 0.35
fix		4 all enforce2d

# diagnostics

compute		tsmall small temp/deform
compute		tbig big temp
variable	pebig equal pe*atoms/count(big)
variable	ebig equal etotal*atoms/count(big)

compute		1 big erotate/asphere
compute		2 all ke
compute		3 all pe
variable	toteng equal (c_1+c_2+c_3)/atoms

thermo		1000
thermo_style	custom step temp c_tsmall f_2[9] c_1 etotal 		v_pebig v_ebig press
thermo_modify	temp tbig

compute		10 big property/atom end1x end1y end2x end2y

#dump		1 all custom 500 dump1.atom.srd id type x y z ix iy iz
#dump		2 all custom 500 dump1.line.srd id type #		c_10[1] c_10[2] c_10[3] c_10[4]

run		10000
SRD info:
  SRD/big particles = 19884 400
  big particle diameter max/min = 1.99882 0.503306
  SRD temperature & lamda = 1 0.2
  SRD max distance & max velocity = 0.8 40
  SRD grid counts: 230 230 1
  SRD grid size: request, actual (xyz) = 0.25, 0.250407 0.250407 1
  SRD per actual grid cell = 0.444963
  SRD viscosity = 4.2356
  big/SRD mass density ratio = 14.0918
  # of rescaled SRD velocities = 0
  ave/max small velocity = 15.906 29.1054
  ave/max big velocity = 0 0
Step Temp tsmall 2[9] 1 TotEng pebig ebig Press
0            0    1.4528554            0            0            0            0            0            0
Averages over the last 6 of 11 rows, steps 5000 to 10000:
Temp tsmall 2[9] 1 TotEng pebig ebig Press
0 1.01496 1.00231 0.00137135 -0.0081005 -0.410777 -0.410777 21.6494
Loop time of 3.93391 on 8 procs for 10000 steps with 20284 atoms

Pair  time (%) = 0.110261 (2.80284)
Neigh time (%) = 0.32853 (8.35124)
Comm  time (%) = 0.199613 (5.07416)
Outpt time (%) = 0.00108692 (0.0276295)
Other time (%) = 3.29442 (83.7441)

#undump          1
#undump          2
unfix		3

change_box      all triclinic
  triclinic box = (-10.0789 -10.0789 -0.5) to (10.0789 10.0789 0.5) with tilt (0 0 0)

fix	        2 small srd 20 big 1.0 0.25 49894 		search 0.2 cubic warn 0.0001 shift yes 49829 		overlap yes collision noslip tstat yes

#dump		1 all custom 500 dump2.atom.srd id type x y z ix iy iz
#dump		2 all custom 500 dump2.line.srd id type #		c_10[1] c_10[2] c_10[3] c_10[4]

fix		3 all deform 1 xy erate 0.05 units box remap v

run		40000
SRD info:
  SRD/big particles = 19884 400
  big particle diameter max/min = 1.99882 0.503306
  SRD temperature & lamda = 1 0.2
  SRD max distance & max velocity = 0.8 40
  SRD grid counts: 81 81 1
  SRD grid size: request, actual (xyz) = 0.25, 0.248861 0.248861 1
  SRD per actual grid cell = -11.3331
  SRD viscosity = -1920.36
  big/SRD mass density ratio = -0.546468
  # of rescaled SRD velocities = 1
  ave/max small velocity = 12.724 40
  ave/max big velocity = 1.54523 5.36901
Step Temp tsmall 2[9] 1 TotEng pebig ebig Press
10000            0    1.0277413            0 0.0036111452  0.010135973   0.51399517   0.51399517    60.794865
Averages over the last 21 of 41 rows, steps 30000 to 50000:
Temp tsmall 2[9] 1 TotEng pebig ebig Press
0 1.0034 1 0.000441645 -0.0330009 -1.67348 -1.67348 53.5816
Loop time of 27.1275 on 8 procs for 40000 steps with 20284 atoms

Pair  time (%) = 1.54277 (5.68709)
Neigh time (%) = 1.26864 (4.67658)
Comm  time (%) = 1.19871 (4.4188)
Outpt time (%) = 0.00421953 (0.0155544)
Other time (%) = 23.1132 (85.202)

Please see the log.cite file for references relevant to this simulation
