LAMMPS (27 Nov 2018)
# Point dipoles in a 2d box

units		lj
atom_style	hybrid sphere dipole
dimension	2

lattice		sq2 0.7
Lattice spacing in x,y,z = 1.69031 1.69031 1.69031
region		box block 0 10 0 10 -0.5 0.5
create_box	1 box
Created orthogonal box = (0 0 -0.845154) to (16.9031 16.9031 0.845154)
create_atoms	1 box
Created 200 atoms
  Time spent = 0.00139761 secs

# need both mass settings due to hybrid atom style

mass		1 1.0
set		group all mass 1.0
  200 settings made for mass
set		group all dipole/random 98934 0.75
  200 settings made for dipole/random

velocity	all create 0.0 87287 mom no

pair_style	lj/cut/dipole/cut 2.5
pair_coeff	* * 1.0 1.0

neighbor	0.3 bin
neigh_modify	delay 0

fix		1 all nve/sphere update dipole
fix		2 all enforce2d

timestep	0.005

compute		erot all erotate/sphere
thermo_style	custom step temp epair c_erot etotal press
thermo		500

#dump		1 all custom 500 dump.dipole id type x y z mux muy

#dump		1 all image 250 image.*.jpg mux type #		zoom 1.6 adiam 1.2
#dump_modify	1 pad 5

run		10000
  update every 1 steps, delay 0 steps, check yes
Step Temp E_pair c_erot TotEng Press
0            0   -2.1909822            0   -2.1909822   -2.5750971
Averages over the last 11 of 21 rows, steps 5000 to 10000:
Temp E_pair c_erot TotEng Press
0.438616 -2.77694 0.232052 -2.34052 -0.018665
Loop time of 0.396069 on 4 procs for 10000 steps with 200 atoms
